CPDS_validation_cosim/Distribution/Bus11/IEEE8500/Master.dss
// Master file for 8500-Node IEEE Test Feeder Case
// Balanced Load Case

Clear

New Circuit.IEEE8500  

! Make the source stiff with small impedance
~ pu=1.05  r1=0  x1=0.001  r0=0  x0=0.001  

Redirect  LineCodes2.dss
Redirect  Triplex_Linecodes.dss

Redirect  Lines.dss
Redirect  Transformers.dss
Redirect  LoadXfmrs.dss    ! Load Transformers
Redirect  Triplex_Lines.dss
Redirect  Loads.dss     ! Balanced Loads
Redirect  Capacitors.dss
Redirect  CapControls.dss
Redirect  Regulators.dss

! Let DSS estimate the voltage bases
Set voltagebases=[115, 12.47,  0.48, 0.208]
Calcvoltagebases     ! This also establishes the bus list

! Load in bus coordintes now that bus list is established
Buscoords  Buscoords.dss

set mode=direct

!New generator.der1 phases=2 Bus1=SX2820528C.1.2 model=1 kv=0.208 kW=30.55 kvar=0 
solve
